
.option compat
.lib model

.global 0 

.param W1=350e-9 L1=180e-9 W2=350e-9 L2=180e-9 W3=350e-9 L3=180e-9 



M1 vout v1_2 vdd vdd CMOSP w='W1' l='L1'
M2 v1_2 v1_2 vdd vdd CMOSP w='W1' l='L1'
M3 v1_2 vinp v2_3 v2_3 CMOSN w='W2' l='L2'
M4 vout vinn v2_3 v2_3 CMOSN w='W2' l='L2'
M5 v2_3 vb 0 0 CMOSN w='W3' l='L3'
C0 vout 0 5e-12

VDD vdd 0 dc 1.8
VINP vinp 0 dc 0.7 ac 0.1 180
VINN vinn 0 dc 0.7 ac 0.1 
VB vb 0 dc 0.7


.ac dec 10 100 1G data=list

.data list W1 W2 W3 L1 L2 L3
+ 3.5e-07 1.9226e-06 1.3032e-05 1.8e-05 1.8e-05 1.8e-05 
+ 3.5e-05 3.5e-05 3.5e-05 1.8e-05 1.8e-07 1.8e-05 
+ 3.5e-05 2.2889e-05 2.714e-05 1.3293e-05 6.1778e-06 1.8e-05 
+ 5.9577e-06 3.5e-05 3.5e-05 1.8e-05 1.8e-07 9.8217e-06 
+ 3.5e-07 1.9479e-06 1.4064e-06 1.8e-05 1.8e-05 1.8e-05 
+ 3.5e-05 3.5e-05 5.0661e-06 1.8e-05 1.8e-05 1.8e-05 
+ 3.5e-05 3.5e-07 3.5e-07 1.3293e-05 1.8e-05 1.8e-05 
+ 3.5e-07 3.5e-05 3.5e-05 1.8e-05 1.7266e-06 1.1564e-05 
+ 3.5e-05 3.5e-05 1.2468e-05 1.8e-05 1.8e-05 1.8e-05 
+ 3.5e-07 2.2626e-06 3.0644e-06 1.8e-05 1.8e-05 1.8e-05 
+ 3.5e-07 1.1096e-06 3.5e-07 1.8e-05 1.8e-05 1.8e-05 
+ 3.5e-07 3.6764e-07 3.5e-07 1.8e-05 1.8e-05 1.8e-05 
+ 3.5e-05 2.2889e-05 5.3437e-06 1.3293e-05 1.8e-05 1.8e-05 
+ 3.5e-07 2.2201e-05 3.5e-05 1.8e-05 1.0654e-05 1.1564e-05 
+ 3.5e-05 3.5e-07 3.5e-07 1.3293e-05 1.8e-05 1.8e-05 
+ 3.5e-07 3.5e-05 3.5e-05 1.8e-05 4.6308e-06 1.1564e-05 
+ 3.5e-05 2.2889e-05 2.4179e-05 1.3293e-05 8.2975e-06 1.8e-05 
+ 3.5e-07 2.3725e-05 3.5e-05 1.8e-05 1.0654e-05 1.1564e-05 
+ 3.5e-05 2.2889e-05 3.0386e-05 1.3293e-05 6.345e-06 1.8e-05 
+ 5.9577e-06 3.5e-05 3.5e-05 1.8e-05 3.1226e-06 1.1564e-05 
+ 3.5e-05 3.5e-07 3.5e-07 1.3293e-05 1.8e-05 1.8e-05 
+ 3.5e-07 2.2314e-05 3.5e-05 1.8e-05 1.0654e-05 1.1564e-05 
+ 3.5e-05 3.5e-07 3.5e-07 1.3293e-05 1.8e-05 1.8e-05 
+ 3.5e-07 3.5e-05 3.5e-05 1.8e-05 1.0654e-05 1.1564e-05 
+ 1.276e-05 3.5e-05 1.8084e-05 1.8e-05 1.8e-05 1.8e-05 
+ 3.5e-07 3.5e-05 4.5822e-06 1.8e-05 1.8e-05 1.8e-05 
+ 3.5e-07 1.1912e-06 3.5e-07 1.8e-05 1.8e-05 1.8e-05 
+ 3.5e-07 6.7567e-06 3.5e-07 1.8e-05 1.8e-05 1.8e-05 
+ 3.5e-05 3.5e-07 3.5e-07 1.3293e-05 1.8e-05 1.8e-05 
+ 3.5e-07 2.2291e-05 3.5e-05 1.8e-05 1.0654e-05 1.1564e-05 
.enddata

.printfile ac v(vout) file=acResult
