
.option compat
.lib model

.global 0 

.param W1=350e-9 L1=180e-9 W2=350e-9 L2=180e-9 W3=350e-9 L3=180e-9 



M1 vout v1_2 vdd vdd CMOSP w='W1' l='L1'
M2 v1_2 v1_2 vdd vdd CMOSP w='W1' l='L1'
M3 v1_2 vinp v2_3 v2_3 CMOSN w='W2' l='L2'
M4 vout vinn v2_3 v2_3 CMOSN w='W2' l='L2'
M5 v2_3 vb 0 0 CMOSN w='W3' l='L3'
C0 vout 0 5e-12

VDD vdd 0 dc 1.8
VINP vinp 0 dc 0.7 ac 0.1 180
VINN vinn 0 dc 0.7 ac 0.1 
VB vb 0 dc 0.7


.ac dec 10 100 1G data=list

.data list W1 W2 W3 L1 L2 L3
+ 3.5e-05 3.5e-05 3.5e-05 1.8e-07 1.8e-07 1.8e-07 
+ 3.5e-07 3.5e-07 3.5e-07 1.8e-05 1.8e-05 1.8e-05 
+ 3.5e-05 3.5e-05 3.5e-05 2.6101e-06 8.577e-07 2.1259e-06 
+ 3.5e-05 3.5e-05 3.5e-05 1.6921e-06 7.3844e-07 5.8199e-07 
+ 3.5e-07 3.8362e-06 1.4368e-05 1.3231e-05 6.6066e-06 1.8e-05 
+ 3.5e-05 2.651e-05 3.5e-05 1.8e-05 1.8e-07 1.8e-07 
+ 3.5e-07 3.9464e-06 1.4368e-05 1.3231e-05 1.0883e-05 1.8e-05 
+ 3.5e-05 2.651e-05 3.5e-05 1.8e-05 1.8e-07 1.8e-07 
+ 1.732e-05 3.5e-05 3.5e-05 1.8e-07 1.8e-07 1.8e-05 
+ 3.5e-05 2.651e-05 3.5e-05 1.8e-05 1.8e-07 1.8e-07 
+ 3.5e-07 6.0499e-06 1.4368e-05 1.3231e-05 1.0883e-05 1.8e-05 
+ 4.6184e-06 3.5e-07 3.5e-05 1.8e-05 7.3581e-06 1.8e-07 
+ 1.732e-05 3.5e-05 3.5e-05 1.8e-07 1.8e-07 1.8e-05 
+ 3.5e-05 2.651e-05 3.5e-05 1.8e-05 1.8e-07 1.8e-07 
+ 1.732e-05 3.5e-05 3.5e-05 1.8e-07 1.8e-07 1.8e-05 
+ 4.202e-06 3.5e-07 3.5e-05 1.8e-05 7.3581e-06 1.8e-07 
+ 2.3577e-06 3.5e-07 3.5e-07 1.8e-05 1.8e-05 1.8e-05 
+ 8.8431e-07 3.5e-05 3.5e-07 1.8e-05 1.8e-05 1.8e-05 
+ 3.5e-07 4.3544e-06 1.4368e-05 1.3231e-05 1.0883e-05 1.8e-05 
+ 4.3452e-06 3.5e-07 3.5e-05 1.8e-05 7.3581e-06 1.8e-07 
+ 3.5e-05 3.5e-05 3.5e-05 1.8e-05 1.8e-05 1.8e-05 
+ 3.5e-07 3.5e-07 3.5e-07 1.8e-05 1.8e-05 1.8e-05 
+ 3.5e-07 3.5e-07 3.5e-07 1.8e-05 1.8e-05 1.8e-05 
+ 3.5e-07 3.5e-07 3.5e-07 1.8e-05 1.8e-05 1.8e-05 
+ 3.5e-07 4.0703e-06 1.4368e-05 1.3231e-05 1.0883e-05 1.8e-05 
+ 4.0554e-06 3.5e-07 3.5e-05 1.8e-05 1.6234e-06 1.8e-07 
+ 3.5e-07 4.4454e-06 1.4368e-05 1.3231e-05 1.0883e-05 1.8e-05 
+ 4.4112e-06 3.5e-07 3.5e-05 1.8e-05 7.3581e-06 1.8e-07 
+ 3.5e-07 3.5e-05 3.5e-07 1.8e-05 1.8e-05 1.8e-05 
+ 3.5e-05 3.5e-05 3.5e-07 1.8e-05 1.8e-05 4.1895e-06 
.enddata

.printfile ac v(vout) file=acResult
