
.option compat
.lib model

.global 0 

.param W1=350e-9 L1=180e-9 W2=350e-9 L2=180e-9 W3=350e-9 L3=180e-9 



M1 vout v1_2 vdd vdd CMOSP w='W1' l='L1'
M2 v1_2 v1_2 vdd vdd CMOSP w='W1' l='L1'
M3 v1_2 vinp v2_3 v2_3 CMOSN w='W2' l='L2'
M4 vout vinn v2_3 v2_3 CMOSN w='W2' l='L2'
M5 v2_3 vb 0 0 CMOSN w='W3' l='L3'
C0 vout 0 5e-12

VDD vdd 0 dc 1.8
VINP vinp 0 dc 0.7 ac 0.1 180
VINN vinn 0 dc 0.7 ac 0.1 
VB vb 0 dc 0.7


.ac dec 10 100 1G data=list

.data list W1 W2 W3 L1 L2 L3
+ 3.5e-07 3.5e-07 3.5e-07 1.8e-05 1.8e-05 1.8e-05 
+ 3.5e-07 3.5e-07 3.5e-07 1.8e-05 1.8e-05 1.8e-05 
+ 3.5e-05 3.5e-05 3.5e-05 1.8e-05 6.3065e-07 1.7979e-06 
+ 3.5e-05 3.5e-05 3.5e-05 1.8e-07 1.8e-07 4.6871e-07 
+ 3.5e-05 3.5e-05 2.7707e-05 1.8e-05 1.1483e-05 1.8e-05 
+ 4.0123e-06 3.5e-05 3.5e-07 9.5433e-06 1.6705e-05 1.8e-05 
+ 2.2898e-05 3.5e-05 2.3934e-05 1.8e-05 1.8e-05 1.8e-05 
+ 9.9061e-07 2.4053e-05 1.0876e-05 1.8e-05 1.8e-05 1.8e-05 
+ 4.6761e-07 2.3849e-05 3.6855e-06 1.8e-05 1.8e-05 1.8e-05 
+ 4.4896e-06 3.5e-05 7.6672e-06 1.8e-05 1.8e-05 1.8e-05 
+ 2.6116e-05 1.413e-05 5.1513e-06 1.8e-05 1.8e-05 1.8e-05 
+ 3.5e-07 3.5e-05 3.5e-07 9.5433e-06 1.6705e-05 1.8e-05 
+ 1.4473e-06 2.6647e-05 2.1735e-05 1.8e-05 1.8e-05 1.8e-05 
+ 3.5e-05 3.5e-05 3.5e-05 1.8e-05 1.8e-05 1.8e-05 
+ 3.5e-05 3.5e-05 3.5e-05 1.8e-05 1.1861e-05 1.8e-05 
+ 3.5e-07 3.5e-05 3.5e-07 9.5433e-06 1.6705e-05 1.8e-05 
+ 2.6424e-05 3.5e-05 5.8449e-06 1.8e-05 1.8e-05 1.8e-05 
+ 9.2566e-07 3.5e-05 3.5e-07 9.5433e-06 1.6705e-05 1.8e-05 
+ 2.6116e-05 3.5e-05 5.1513e-06 1.8e-05 1.8e-05 1.8e-05 
+ 3.5e-07 3.5e-05 3.5e-07 9.5433e-06 1.6705e-05 1.8e-05 
+ 3.5e-05 3.5e-05 3.5e-05 1.8e-05 1.8e-05 1.8e-05 
+ 3.5e-07 3.5e-05 3.5e-07 9.5433e-06 1.6705e-05 1.8e-05 
+ 2.7227e-05 3.5e-05 7.7952e-06 1.8e-05 1.8e-05 1.8e-05 
+ 3.5e-07 3.5e-05 3.5e-07 9.5433e-06 1.6705e-05 1.8e-05 
+ 3.5e-05 3.5e-05 3.5e-05 1.8e-05 1.8e-05 1.3925e-05 
+ 2.7743e-06 3.5e-05 2.251e-05 1.8e-05 1.8e-05 1.8e-05 
+ 3.5e-05 3.5e-05 3.5e-05 1.8e-07 7.7384e-06 1.5151e-05 
+ 4.1402e-06 3.5e-05 2.3952e-05 1.8e-05 1.8e-05 1.8e-05 
+ 3.3381e-06 3.5e-05 2.3937e-05 1.8e-05 1.8e-05 1.8e-05 
+ 3.5e-05 3.5e-05 3.5e-05 1.0185e-05 9.0596e-06 1.2205e-05 
.enddata

.printfile ac v(vout) file=acResult
